psse/psse-converter/src/test/resources/parallelTwoTerminalDcBetweenSameAcBuses_updated_exported.raw
0 100.0 33 0.0 0.0 60.0
TwoTerminalDc Bus Test Case
8/19/93
1 'Bus 1' 230.0 3 1 1 1 1.06 0.0 1.1 0.9 1.1 0.9
2 'Bus 2' 230.0 2 1 1 1 1.045 -5.78419916 1.1 0.9 1.1 0.9
3 'Bus 3' 230.0 2 1 1 1 1.01183507 -14.05192514 1.1 0.9 1.1 0.9
4 'Bus 4' 230.0 1 1 1 1 1.06078294 -13.09089157 1.1 0.9 1.1 0.9
5 'Bus 5' 230.0 1 1 1 1 1.05136109 -10.35696444 1.1 0.9 1.1 0.9
6 'Bus 6' 110.0 2 1 1 1 1.09675498 -11.66424213 1.1 0.9 1.1 0.9
7 'Bus 7' 110.0 1 1 1 1 1.36827024 -13.70448468 1.1 0.9 1.1 0.9
8 'Bus 8' 230.0 1 1 1 1 0.98968742 -5.48014421 1.1 0.9 1.1 0.9
9 'Bus 9' 2300.0 1 1 1 1 1.05132788 -15.10432485 1.1 0.9 1.1 0.9
0 / END OF BUS DATA, BEGIN LOAD DATA
2 '1' 1 1 1 21.7 12.7 0.0 0.0 0.0 -0.0 1 1 0
3 '1' 1 1 1 94.2 19.0 0.0 0.0 0.0 -0.0 1 1 0
4 '1' 1 1 1 47.8 -3.9 0.0 0.0 0.0 -0.0 1 1 0
5 '1' 1 1 1 7.6 1.6 0.0 0.0 0.0 -0.0 1 1 0
6 '1' 1 1 1 11.2 7.5 0.0 0.0 0.0 -0.0 1 1 0
7 '1' 1 1 1 7.6 1.6 0.0 0.0 0.0 -0.0 1 1 0
9 '1' 1 1 1 98.75 -24.1 0.0 0.0 0.0 -0.0 1 1 0
0 / END OF LOAD DATA, BEGIN FIXED SHUNT DATA
9 '1' 1 0.0 19.0
0 / END OF FIXED SHUNT DATA, BEGIN GENERATOR DATA
1 '1' 268.81 -37.65 0.0 0.0 1.06 0 100.0 0.0 1.0 0.0 0.0 0.0 1 100.0 464.8 0.0 1 1.0 0 0.0 0 0.0 0 0.0 0 1.0
2 '1' 40.0 4.45 50.0 -40.0 1.045 0 100.0 0.0 1.0 0.0 0.0 0.0 1 100.0 80.0 0.0 1 1.0 0 0.0 0 0.0 0 0.0 0 1.0
3 '1' 0.0 0.0 40.0 0.0 1.01 0 100.0 0.0 1.0 0.0 0.0 0.0 1 100.0 -0.0 0.0 1 1.0 0 0.0 0 0.0 0 0.0 0 1.0
6 '1' 0.0 -6.0 24.0 -6.0 1.01 0 100.0 0.0 1.0 0.0 0.0 0.0 1 100.0 -0.0 0.0 1 1.0 0 0.0 0 0.0 0 0.0 0 1.0
0 / END OF GENERATOR DATA, BEGIN BRANCH DATA
1 2 '1' 0.01938 0.05917 0.0528 283.39189896 0.0 0.0 0.0 0.0 0.0 0.0 1 1 1.0 1 1.0 0 0.0 0 0.0 0 0.0
1 5 '1' 0.05403 0.22304 0.0492 140.900465494 0.0 0.0 0.0 0.0 0.0 0.0 1 1 1.0 1 1.0 0 0.0 0 0.0 0 0.0
2 3 '1' 0.04699 0.19797 0.0438 141.110268567 0.0 0.0 0.0 0.0 0.0 0.0 1 1 1.0 1 1.0 0 0.0 0 0.0 0 0.0
2 4 '1' 0.05811 0.17632 0.0374 138.167616977 0.0 0.0 0.0 0.0 0.0 0.0 1 1 1.0 1 1.0 0 0.0 0 0.0 0 0.0
2 5 '1' 0.05695 0.17388 0.034 132.658748996 0.0 0.0 0.0 0.0 0.0 0.0 1 1 1.0 1 1.0 0 0.0 0 0.0 0 0.0
3 4 '1' 0.06701 0.17103 0.0346 134.93454727 0.0 0.0 0.0 0.0 0.0 0.0 1 1 1.0 1 1.0 0 0.0 0 0.0 0 0.0
4 5 '1' 0.01335 0.04211 0.0128 165.399281577 0.0 0.0 0.0 0.0 0.0 0.0 1 1 1.0 1 1.0 0 0.0 0 0.0 0 0.0
8 9 '1' 0.0 0.17615 0.0 9999.0 0.0 0.0 0.0 0.0 0.0 0.0 1 1 1.0 1 1.0 0 0.0 0 0.0 0 0.0
0 / END OF BRANCH DATA, BEGIN TRANSFORMER DATA
4 7 0 '1' 1 1 1 0.0 0.0 2 '        ' 1 0 0.0 0 0.0 0 0.0 0 0.0 '            '
0.0 0.20912 100.0
0.978 0.0 0.0 9999.0 0.0 0.0 0 0 0.0 0.0 0.0 0.0 1 0 0.0 0.0 0.0
1.0 0.0
5 6 0 '1' 1 1 1 0.0 0.0 2 '        ' 1 0 0.0 0 0.0 0 0.0 0 0.0 '            '
0.0 0.25202 100.0
0.932 0.0 0.0 9999.0 0.0 0.0 0 0 0.0 0.0 0.0 0.0 1 0 0.0 0.0 0.0
1.0 0.0
0 / END OF TRANSFORMER DATA, BEGIN AREA DATA
1 2 0.0 999.99 'IEEE 14 Bus Test Case'
0 / END OF AREA DATA, BEGIN TWO-TERMINAL DC DATA
'EATL P1     ' 1 7.365 100.0 240.0 0.0 7.365 0.1 'R' 0.0 50 1.0
4 1 17.3 12.7 0.48 21.32 240.0 0.832 1.1 1.2 0.975 0.0125 0 0 0 '1 ' 0.0
8 1 20.5 18.0 0.48 21.32 240.0 1.7325 1.1419 1.2064 0.8968 0.0129 0 0 0 '1 ' 0.0
'EATL P2     ' 1 7.265 100.0 240.0 0.0 7.265 0.1 'R' 0.0 50 1.0
4 1 17.3 12.7 0.48 21.32 240.0 0.832 1.1 1.2 0.975 0.0125 0 0 0 '1 ' 0.0
8 1 20.5 18.0 0.48 21.32 240.0 1.7325 1.1419 1.2064 0.8968 0.0129 0 0 0 '1 ' 0.0
0 / END OF TWO-TERMINAL DC DATA, BEGIN VOLTAGE SOURCE CONVERTER DATA
0 / END OF VOLTAGE SOURCE CONVERTER DATA, BEGIN IMPEDANCE CORRECTION DATA
0 / END OF IMPEDANCE CORRECTION DATA, BEGIN MULTI-TERMINAL DC DATA
0 / END OF MULTI-TERMINAL DC DATA, BEGIN MULTI-SECTION LINE DATA
0 / END OF MULTI-SECTION LINE DATA, BEGIN ZONE DATA
1 'IEEE 14 BUS'
0 / END OF ZONE DATA, BEGIN INTER-AREA TRANSFER DATA
0 / END OF INTER-AREA TRANSFER DATA, BEGIN OWNER DATA
1 'Default'
0 / END OF OWNER DATA, BEGIN FACTS CONTROL DEVICE DATA
0 / END OF FACTS CONTROL DEVICE DATA, BEGIN SWITCHED SHUNT DATA
7 1 0 1 1.0 0.99 0 100.0 '        ' 100.00000000000001 1 100.0
0 / END OF SWITCHED SHUNT DATA, BEGIN GNE DEVICE DATA
0 / END OF GNE DEVICE DATA, BEGIN INDUCTION MACHINE DATA
0 / END OF INDUCTION MACHINE DATA
Q
